Circuit: * C:\ECE 455\LtSpice\Polarization_ckt.asc

Per .tran options, skipping operating point for transient analysis.

Date: Sun May  3 00:47:38 2026
Total elapsed time: 0.769 seconds.

tnom = 27
temp = 27
method = Gear
totiter = 79647
traniter = 79647
tranpoints = 35280
accept = 24663
rejected = 10617
matrix size = 18
fillins = 10
solver = Normal
Avg thread counts: 2.1/1.2/1.2/1.1
Matrix Compiler1: 1.39 KB object code size  1.0/0.9/[0.9]
Matrix Compiler2: off  [0.4]/1.1/0.9

